Test_Network/condensed/network_17/Feeder_6/Lines.txt
New Line.LINE104 Bus1=102 Bus2=105 phases=3 Linecode=4c_.12 Length=1.939 Units=m
New Line.LINE110 Bus1=105 Bus2=111 phases=3 Linecode=4c_.12 Length=1.6398 Units=m
New Line.LINE116 Bus1=111 Bus2=117 phases=3 Linecode=2c_.04 Length=6.8256 Units=m
New Line.LINE123 Bus1=117 Bus2=124 phases=3 Linecode=2c_.04 Length=4.4985 Units=m
New Line.LINE133 Bus1=127 Bus2=134 phases=3 Linecode=2c_.04 Length=8.8692 Units=m
New Line.LINE141 Bus1=134 Bus2=142 phases=3 Linecode=2c_.04 Length=5.0849 Units=m
New Line.LINE203 Bus1=194 Bus2=204 phases=3 Linecode=2c_.04 Length=8.3069 Units=m
New Line.LINE206 Bus1=196 Bus2=207 phases=3 Linecode=2c_.04 Length=7.333 Units=m
New Line.LINE215 Bus1=204 Bus2=216 phases=3 Linecode=2c_.04 Length=3.7623 Units=m
New Line.LINE219 Bus1=207 Bus2=220 phases=3 Linecode=2c_.04 Length=4.0687 Units=m
New Line.LINE232 Bus1=218 Bus2=233 phases=3 Linecode=4c_.12 Length=4.1005 Units=m
New Line.LINE306 Bus1=288 Bus2=307 phases=3 Linecode=2c_.04 Length=5.4459 Units=m
New Line.LINE322 Bus1=301 Bus2=323 phases=3 Linecode=2c_.04 Length=7.9363 Units=m
New Line.LINE344 Bus1=323 Bus2=345 phases=3 Linecode=2c_.04 Length=4.8547 Units=m
New Line.LINE400 Bus1=382 Bus2=401 phases=3 Linecode=2c_.04 Length=4.3632 Units=m
New Line.LINE409 Bus1=389 Bus2=410 phases=3 Linecode=2c_.04 Length=6.0619 Units=m
New Line.LINE439 Bus1=415 Bus2=440 phases=3 Linecode=2c_.04 Length=4.9893 Units=m
New Line.LINE440 Bus1=415 Bus2=441 phases=3 Linecode=2c_.04 Length=4.9893 Units=m
New Line.LINE482 Bus1=457 Bus2=483 phases=3 Linecode=2c_.04 Length=6.1533 Units=m
New Line.LINE511 Bus1=483 Bus2=512 phases=3 Linecode=2c_.04 Length=5.0943 Units=m
New Line.LINE574 Bus1=547 Bus2=575 phases=3 Linecode=2c_.04 Length=2.344 Units=m
New Line.LINE575 Bus1=547 Bus2=576 phases=3 Linecode=2c_.04 Length=2.344 Units=m
New Line.LINE576 Bus1=548 Bus2=577 phases=3 Linecode=2c_.04 Length=6.3346 Units=m
New Line.LINE578 Bus1=549 Bus2=579 phases=3 Linecode=2c_.04 Length=5.3837 Units=m
New Line.LINE601 Bus1=568 Bus2=602 phases=3 Linecode=2c_.04 Length=5.3316 Units=m
New Line.LINE683 Bus1=654 Bus2=684 phases=3 Linecode=2c_.04 Length=6.5306 Units=m
New Line.LINE713 Bus1=684 Bus2=714 phases=3 Linecode=2c_.04 Length=3.832 Units=m
New Line.LINE720 Bus1=691 Bus2=721 phases=3 Linecode=2c_.04 Length=8.4976 Units=m
New Line.LINE752 Bus1=724 Bus2=753 phases=3 Linecode=2c_.04 Length=5.8887 Units=m
New Line.LINE753 Bus1=724 Bus2=754 phases=3 Linecode=2c_.04 Length=6.776 Units=m
New Line.LINE754 Bus1=724 Bus2=755 phases=3 Linecode=2c_.04 Length=6.776 Units=m
New Line.LINE771 Bus1=742 Bus2=772 phases=3 Linecode=25_PSC Length=9.14 Units=m
New Line.LINE775 Bus1=745 Bus2=776 phases=3 Linecode=2c_.04 Length=5.8392 Units=m
New Line.LINE776 Bus1=745 Bus2=777 phases=3 Linecode=2c_.04 Length=5.8392 Units=m
New Line.LINE777 Bus1=745 Bus2=778 phases=3 Linecode=2c_.04 Length=5.9753 Units=m
New Line.LINE784 Bus1=753 Bus2=785 phases=3 Linecode=2c_.04 Length=4.3663 Units=m
New Line.LINE785 Bus1=753 Bus2=786 phases=3 Linecode=2c_.04 Length=4.3663 Units=m
New Line.LINE798 Bus1=768 Bus2=799 phases=3 Linecode=35_SAC_XC Length=5.1489 Units=m
New Line.LINE808 Bus1=778 Bus2=809 phases=3 Linecode=2c_.04 Length=6.8782 Units=m
New Line.LINE809 Bus1=778 Bus2=810 phases=3 Linecode=2c_.04 Length=6.8782 Units=m
New Line.LINE861 Bus1=835 Bus2=862 phases=3 Linecode=2c_.04 Length=6.6184 Units=m
New Line.LINE886 Bus1=862 Bus2=887 phases=3 Linecode=2c_.04 Length=5.3031 Units=m
New Line.LINE913 Bus1=889 Bus2=914 phases=3 Linecode=2c_.04 Length=7.383 Units=m
New Line.LINE918 Bus1=893 Bus2=919 phases=3 Linecode=2c_.04 Length=5.2271 Units=m
New Line.LINE929 Bus1=903 Bus2=930 phases=3 Linecode=2c_.04 Length=1.7277 Units=m
New Line.LINE930 Bus1=903 Bus2=931 phases=3 Linecode=2c_.04 Length=1.7277 Units=m
New Line.LINE979 Bus1=953 Bus2=980 phases=3 Linecode=2c_.04 Length=6.0623 Units=m
New Line.LINE1024 Bus1=1002 Bus2=1025 phases=3 Linecode=2c_.04 Length=4.2433 Units=m
New Line.LINE1039 Bus1=1016 Bus2=1040 phases=3 Linecode=25_PSC Length=2.8833 Units=m
New Line.LINE1040 Bus1=1016 Bus2=1041 phases=3 Linecode=25_PSC Length=2.8833 Units=m
New Line.LINE1048 Bus1=1023 Bus2=1049 phases=3 Linecode=2c_.04 Length=5.7298 Units=m
New Line.LINE1061 Bus1=1036 Bus2=1062 phases=3 Linecode=2c_.04 Length=3.2822 Units=m
New Line.LINE1074 Bus1=1050 Bus2=1075 phases=3 Linecode=2c_.04 Length=5.3231 Units=m
New Line.LINE1093 Bus1=1069 Bus2=1094 phases=3 Linecode=2c_.04 Length=4.6484 Units=m
New Line.LINE1094 Bus1=1069 Bus2=1095 phases=3 Linecode=2c_.04 Length=4.6484 Units=m
New Line.LINE1104 Bus1=1080 Bus2=1105 phases=3 Linecode=2c_.04 Length=7.2047 Units=m
New Line.LINE1105 Bus1=1080 Bus2=1106 phases=3 Linecode=2c_.04 Length=7.2047 Units=m
New Line.LINE1145 Bus1=1125 Bus2=1146 phases=3 Linecode=2c_.04 Length=5.5235 Units=m
New Line.LINE1165 Bus1=1144 Bus2=1166 phases=3 Linecode=2c_.04 Length=5.406 Units=m
New Line.LINE1201 Bus1=1180 Bus2=1202 phases=3 Linecode=25_PSC Length=5.1711 Units=m
New Line.LINE1202 Bus1=1180 Bus2=1203 phases=3 Linecode=25_PSC Length=5.1711 Units=m
New Line.LINE1218 Bus1=1195 Bus2=1219 phases=3 Linecode=25_SAC_XC Length=0.2619 Units=m
New Line.LINE1274 Bus1=1251 Bus2=1275 phases=3 Linecode=2c_.04 Length=5.5889 Units=m
New Line.LINE1280 Bus1=1256 Bus2=1281 phases=3 Linecode=4c_.12 Length=1.4779 Units=m
New Line.LINE1304 Bus1=1281 Bus2=1305 phases=3 Linecode=2c_.04 Length=27.336 Units=m
New Line.LINE1316 Bus1=1292 Bus2=1317 phases=3 Linecode=2c_.04 Length=5.9486 Units=m
New Line.LINE1317 Bus1=1292 Bus2=1318 phases=3 Linecode=2c_.04 Length=5.9486 Units=m
New Line.LINE1326 Bus1=1300 Bus2=1327 phases=3 Linecode=2c_.04 Length=5.4889 Units=m
New Line.LINE1329 Bus1=1302 Bus2=1330 phases=3 Linecode=2c_.04 Length=5.426 Units=m
New Line.LINE1381 Bus1=1355 Bus2=1382 phases=3 Linecode=2c_.04 Length=5.0273 Units=m
New Line.LINE1508 Bus1=1485 Bus2=1509 phases=3 Linecode=2c_.04 Length=5.2311 Units=m
New Line.LINE1510 Bus1=1486 Bus2=1511 phases=3 Linecode=2c_.04 Length=5.0582 Units=m
New Line.LINE1517 Bus1=1494 Bus2=1518 phases=3 Linecode=3c_.04 Length=4.6471 Units=m
New Line.LINE1554 Bus1=1532 Bus2=1555 phases=3 Linecode=3c_.04 Length=5.4685 Units=m
New Line.LINE1559 Bus1=1536 Bus2=1560 phases=3 Linecode=2c_.04 Length=13.6097 Units=m
New Line.LINE1583 Bus1=1560 Bus2=1584 phases=3 Linecode=2c_.04 Length=3.7549 Units=m
New Line.LINE1587 Bus1=1564 Bus2=1588 phases=3 Linecode=3c_.04 Length=5.1975 Units=m
New Line.LINE1599 Bus1=1572 Bus2=1600 phases=3 Linecode=4c_.06 Length=4.4745 Units=m
New Line.LINE1605 Bus1=1576 Bus2=1606 phases=3 Linecode=2c_.04 Length=5.4983 Units=m
New Line.LINE1615 Bus1=1586 Bus2=1616 phases=3 Linecode=2c_.04 Length=3.4404 Units=m
New Line.LINE1616 Bus1=1586 Bus2=1617 phases=3 Linecode=2c_.04 Length=3.4404 Units=m
New Line.LINE1641 Bus1=1613 Bus2=1642 phases=3 Linecode=2c_.04 Length=4.818 Units=m
New Line.LINE1670 Bus1=1644 Bus2=1671 phases=3 Linecode=2c_.04 Length=6.7571 Units=m
New Line.LINE1671 Bus1=1644 Bus2=1672 phases=3 Linecode=2c_.04 Length=6.7571 Units=m
New Line.LINE1710 Bus1=1682 Bus2=1711 phases=3 Linecode=4c_.04 Length=15.9207 Units=m
New Line.LINE1800 Bus1=1772 Bus2=1801 phases=3 Linecode=2c_.04 Length=13.287 Units=m
New Line.LINE1804 Bus1=1775 Bus2=1805 phases=3 Linecode=2c_.04 Length=4.2411 Units=m
New Line.LINE1844 Bus1=1817 Bus2=1845 phases=3 Linecode=2c_.04 Length=6.0535 Units=m
New Line.LINE1856 Bus1=1828 Bus2=1857 phases=3 Linecode=2c_.04 Length=3.3864 Units=m
New Line.LINE1861 Bus1=1833 Bus2=1862 phases=3 Linecode=25_SAC_XC Length=2.9817 Units=m
New Line.LINE1872 Bus1=1846 Bus2=1873 phases=3 Linecode=2c_.04 Length=4.5823 Units=m
New Line.LINE1884 Bus1=1858 Bus2=1885 phases=3 Linecode=2c_.04 Length=3.3143 Units=m
New Line.LINE1953 Bus1=1929 Bus2=1954 phases=3 Linecode=2c_.04 Length=4.8815 Units=m
New Line.LINE1964 Bus1=1939 Bus2=1965 phases=3 Linecode=4c_.04 Length=15.7986 Units=m
New Line.LINE1971 Bus1=1945 Bus2=1972 phases=3 Linecode=2c_.04 Length=5.2528 Units=m
New Line.LINE2004 Bus1=1979 Bus2=2005 phases=3 Linecode=2c_.04 Length=6.9645 Units=m
New Line.LINE2005 Bus1=1979 Bus2=2006 phases=3 Linecode=2c_.04 Length=6.9645 Units=m
New Line.LINE2028 Bus1=1999 Bus2=2029 phases=3 Linecode=2c_.04 Length=1.5231 Units=m
New Line.LINE2030 Bus1=2000 Bus2=2031 phases=3 Linecode=2c_.04 Length=4.2797 Units=m
New Line.LINE2045 Bus1=2016 Bus2=2046 phases=3 Linecode=2c_.04 Length=4.9185 Units=m
New Line.LINE2062 Bus1=2036 Bus2=2063 phases=3 Linecode=2c_.04 Length=5.5599 Units=m
New Line.LINE2080 Bus1=2054 Bus2=2081 phases=3 Linecode=2c_.04 Length=5.9958 Units=m
New Line.LINE2099 Bus1=2072 Bus2=2100 phases=3 Linecode=2c_.04 Length=2.8356 Units=m
New Line.LINE2100 Bus1=2072 Bus2=2101 phases=3 Linecode=2c_.04 Length=2.8356 Units=m
New Line.LINE2102 Bus1=2075 Bus2=2103 phases=3 Linecode=2c_.04 Length=4.1821 Units=m
New Line.LINE2104 Bus1=2075 Bus2=2105 phases=3 Linecode=2c_.04 Length=3.4154 Units=m
New Line.LINE2105 Bus1=2076 Bus2=2106 phases=3 Linecode=2c_.04 Length=5.6823 Units=m
New Line.LINE2107 Bus1=2076 Bus2=2108 phases=3 Linecode=2c_.04 Length=3.2803 Units=m
New Line.LINE2114 Bus1=2083 Bus2=2115 phases=3 Linecode=2c_.04 Length=5.3586 Units=m
New Line.LINE2125 Bus1=2094 Bus2=2126 phases=3 Linecode=2c_.04 Length=2.127 Units=m
New Line.LINE2126 Bus1=2094 Bus2=2127 phases=3 Linecode=2c_.04 Length=2.127 Units=m
New Line.LINE2130 Bus1=2097 Bus2=2131 phases=3 Linecode=2c_.04 Length=5.9404 Units=m
New Line.LINE2131 Bus1=2097 Bus2=2132 phases=3 Linecode=2c_.04 Length=5.9404 Units=m
New Line.LINE2132 Bus1=2097 Bus2=2133 phases=3 Linecode=2c_.04 Length=5.1705 Units=m
New Line.LINE2180 Bus1=2156 Bus2=2181 phases=3 Linecode=2c_.04 Length=1.8232 Units=m
New Line.LINE2181 Bus1=2156 Bus2=2182 phases=3 Linecode=2c_.04 Length=1.8232 Units=m
New Line.LINE2204 Bus1=2176 Bus2=2205 phases=3 Linecode=4c_.12 Length=0.49041 Units=m
New Line.LINE2253 Bus1=2226 Bus2=2254 phases=3 Linecode=2c_.04 Length=6.359 Units=m
New Line.LINE2254 Bus1=2226 Bus2=2255 phases=3 Linecode=2c_.04 Length=10.9871 Units=m
New Line.LINE2260 Bus1=2233 Bus2=2261 phases=3 Linecode=2c_.04 Length=6.2 Units=m
New Line.LINE2290 Bus1=2264 Bus2=2291 phases=3 Linecode=2c_.04 Length=4.6365 Units=m
New Line.LINE2369 Bus1=2340 Bus2=2370 phases=3 Linecode=2c_.04 Length=4.3942 Units=m
New Line.LINE2370 Bus1=2340 Bus2=2371 phases=3 Linecode=2c_.04 Length=4.3942 Units=m
New Line.LINE2378 Bus1=2347 Bus2=2379 phases=3 Linecode=4c_.12 Length=1.4823 Units=m
New Line.LINE2391 Bus1=2361 Bus2=2392 phases=3 Linecode=2c_.04 Length=5.2733 Units=m
New Line.LINE2392 Bus1=2361 Bus2=2393 phases=3 Linecode=2c_.04 Length=5.2733 Units=m
New Line.LINE2401 Bus1=2372 Bus2=2402 phases=3 Linecode=2c_.04 Length=4.9174 Units=m
New Line.LINE2402 Bus1=2372 Bus2=2403 phases=3 Linecode=2c_.04 Length=4.9174 Units=m
New Line.LINE2429 Bus1=2399 Bus2=2430 phases=3 Linecode=2c_.04 Length=7.7507 Units=m
New Line.LINE2430 Bus1=2399 Bus2=2431 phases=3 Linecode=2c_.04 Length=7.7507 Units=m
New Line.LINE2434 Bus1=2404 Bus2=2435 phases=3 Linecode=2c_.04 Length=3.291 Units=m
New Line.LINE2460 Bus1=2429 Bus2=2461 phases=3 Linecode=2c_.04 Length=4.3531 Units=m
New Line.LINE2481 Bus1=2454 Bus2=2482 phases=3 Linecode=2c_.04 Length=5.3488 Units=m
New Line.LINE2483 Bus1=2454 Bus2=2484 phases=3 Linecode=2c_.04 Length=2.23 Units=m
New Line.LINE2484 Bus1=2454 Bus2=2485 phases=3 Linecode=2c_.04 Length=2.23 Units=m
New Line.LINE2495 Bus1=2467 Bus2=2496 phases=3 Linecode=2c_.04 Length=5.6374 Units=m
New Line.LINE2499 Bus1=2470 Bus2=2500 phases=3 Linecode=4c_.12 Length=3.7383 Units=m
New Line.LINE2527 Bus1=2500 Bus2=2528 phases=3 Linecode=4c_.12 Length=5.8805 Units=m
New Line.LINE2549 Bus1=2524 Bus2=2550 phases=3 Linecode=2c_.04 Length=4.7616 Units=m
New Line.LINE2557 Bus1=2528 Bus2=2558 phases=3 Linecode=2c_.04 Length=8.0228 Units=m
New Line.LINE2574 Bus1=2546 Bus2=2575 phases=3 Linecode=2c_.04 Length=7.6576 Units=m
New Line.LINE2575 Bus1=2546 Bus2=2576 phases=3 Linecode=2c_.04 Length=7.6576 Units=m
New Line.LINE2576 Bus1=2546 Bus2=2577 phases=3 Linecode=2c_.04 Length=5.4913 Units=m
New Line.LINE2586 Bus1=2558 Bus2=2587 phases=3 Linecode=2c_.04 Length=4.6801 Units=m
New Line.LINE2593 Bus1=2561 Bus2=2594 phases=3 Linecode=2c_.04 Length=7.7967 Units=m
New Line.LINE2598 Bus1=2566 Bus2=2599 phases=3 Linecode=2c_.04 Length=5.34 Units=m
New Line.LINE2599 Bus1=2566 Bus2=2600 phases=3 Linecode=2c_.04 Length=5.8513 Units=m
New Line.LINE2608 Bus1=2577 Bus2=2609 phases=3 Linecode=2c_.04 Length=2.6735 Units=m
New Line.LINE2609 Bus1=2577 Bus2=2610 phases=3 Linecode=2c_.04 Length=2.6735 Units=m
New Line.LINE2639 Bus1=2607 Bus2=2640 phases=3 Linecode=2c_.04 Length=5.6815 Units=m
New Line.LINE2641 Bus1=2607 Bus2=2642 phases=3 Linecode=2c_.04 Length=4.9025 Units=m
New Line.LINE2675 Bus1=2643 Bus2=2676 phases=3 Linecode=2c_.04 Length=5.5992 Units=m
New Line.LINE2690 Bus1=2657 Bus2=2691 phases=3 Linecode=4c_.12 Length=2.3789 Units=m
New Line.LINE2722 Bus1=2691 Bus2=2723 phases=3 Linecode=2c_.04 Length=8.0942 Units=m
New Line.LINE2731 Bus1=2699 Bus2=2732 phases=3 Linecode=2c_.04 Length=6.117 Units=m
New Line.LINE2755 Bus1=2723 Bus2=2756 phases=3 Linecode=2c_.04 Length=4.6922 Units=m
New Line.LINE2857 Bus1=2824 Bus2=2858 phases=3 Linecode=2c_.04 Length=5.4847 Units=m
New Line.LINE2871 Bus1=2837 Bus2=2872 phases=3 Linecode=2c_.04 Length=3.7931 Units=m
New Line.LINE2872 Bus1=2837 Bus2=2873 phases=3 Linecode=2c_.04 Length=4.7682 Units=m
New Line.LINE2880 Bus1=2844 Bus2=2881 phases=3 Linecode=2c_.04 Length=4.2463 Units=m
New Line.LINE2882 Bus1=2845 Bus2=2883 phases=3 Linecode=2c_.04 Length=0.82818 Units=m
New Line.LINE2900 Bus1=2865 Bus2=2901 phases=3 Linecode=2c_.04 Length=5.6944 Units=m
New Line.LINE2901 Bus1=2865 Bus2=2902 phases=3 Linecode=2c_.04 Length=5.6944 Units=m
New Line.LINE2918 Bus1=2889 Bus2=2919 phases=3 Linecode=2c_.04 Length=5.5507 Units=m
New Line.LINE2919 Bus1=2889 Bus2=2920 phases=3 Linecode=2c_.04 Length=7.4047 Units=m
New Line.LINE2923 Bus1=2894 Bus2=2924 phases=3 Linecode=2c_.04 Length=5.426 Units=m
New Line.LINE2924 Bus1=2894 Bus2=2925 phases=3 Linecode=2c_.04 Length=5.426 Units=m
New Line.LINE2934 Bus1=2903 Bus2=2935 phases=3 Linecode=2c_.04 Length=2.5029 Units=m
New Line.LINE2935 Bus1=2903 Bus2=2936 phases=3 Linecode=2c_.04 Length=2.5029 Units=m
New Line.LINE2950 Bus1=2919 Bus2=2951 phases=3 Linecode=2c_.04 Length=3.2359 Units=m
New Line.LINE2952 Bus1=2920 Bus2=2953 phases=3 Linecode=2c_.04 Length=2.4114 Units=m
New Line.LINE3022 Bus1=2997 Bus2=3023 phases=3 Linecode=2c_.04 Length=5.1073 Units=m
New Line.LINE3023 Bus1=2997 Bus2=3024 phases=3 Linecode=2c_.04 Length=3.913 Units=m
New Line.LINE3038 Bus1=3011 Bus2=3039 phases=3 Linecode=2c_.04 Length=6.503 Units=m
New Line.LINE3039 Bus1=3011 Bus2=3040 phases=3 Linecode=2c_.04 Length=6.503 Units=m
New Line.LINE3090 Bus1=3066 Bus2=3091 phases=3 Linecode=2c_.04 Length=4.9887 Units=m
New Line.LINE3105 Bus1=3079 Bus2=3106 phases=3 Linecode=2c_.04 Length=4.8399 Units=m
New Line.LINE3165 Bus1=3144 Bus2=3166 phases=3 Linecode=2c_.04 Length=3.5481 Units=m
New Line.LINE3197 Bus1=3176 Bus2=3198 phases=3 Linecode=2c_.04 Length=5.3879 Units=m
New Line.LINE3198 Bus1=3176 Bus2=3199 phases=3 Linecode=2c_.04 Length=9.4216 Units=m
New Line.LINE3199 Bus1=3176 Bus2=3200 phases=3 Linecode=2c_.04 Length=9.4216 Units=m
New Line.LINE3224 Bus1=3203 Bus2=3225 phases=3 Linecode=2c_.04 Length=3.2224 Units=m
New Line.LINE3225 Bus1=3203 Bus2=3226 phases=3 Linecode=2c_.04 Length=3.2224 Units=m
New Line.LINE3245 Bus1=3223 Bus2=3246 phases=3 Linecode=2c_.04 Length=2.0777 Units=m
New Line.LINE3246 Bus1=3223 Bus2=3247 phases=3 Linecode=2c_.04 Length=2.0777 Units=m
New Line.LINE3247 Bus1=3223 Bus2=3248 phases=3 Linecode=2c_.04 Length=2.9182 Units=m
New Line.LINE3248 Bus1=3224 Bus2=3249 phases=3 Linecode=2c_.04 Length=7.6826 Units=m
New Line.LINE3249 Bus1=3224 Bus2=3250 phases=3 Linecode=2c_.04 Length=7.6826 Units=m
New Line.LINE3313 Bus1=3292 Bus2=3314 phases=3 Linecode=2c_.04 Length=4.0645 Units=m
New Line.LINE3334 Bus1=3313 Bus2=3335 phases=3 Linecode=2c_.04 Length=3.1924 Units=m
New Line.LINE3338 Bus1=3317 Bus2=3339 phases=3 Linecode=2c_.04 Length=3.2603 Units=m
New Line.LINE3339 Bus1=3317 Bus2=3340 phases=3 Linecode=2c_.04 Length=3.2603 Units=m
New Line.LINE3360 Bus1=3338 Bus2=3361 phases=3 Linecode=2c_.04 Length=6.0606 Units=m
New Line.LINE3361 Bus1=3338 Bus2=3362 phases=3 Linecode=2c_.04 Length=6.0606 Units=m
New Line.LINE3406 Bus1=3388 Bus2=3407 phases=3 Linecode=2c_.04 Length=3.7217 Units=m
New Line.LINE3416 Bus1=3397 Bus2=3417 phases=3 Linecode=2c_.04 Length=3.7138 Units=m
New Line.LINE3444 Bus1=3428 Bus2=3445 phases=3 Linecode=2c_.04 Length=3.9934 Units=m
New Line.LINE3478 Bus1=3464 Bus2=3479 phases=3 Linecode=2c_.04 Length=5.744 Units=m
New Line.LINE3506 Bus1=3493 Bus2=3507 phases=3 Linecode=2c_.04 Length=5.2781 Units=m
New Line.LINE3530 Bus1=3516 Bus2=3531 phases=3 Linecode=2c_.04 Length=5.2443 Units=m
New Line.LINE3534 Bus1=3519 Bus2=3535 phases=3 Linecode=3c_.04 Length=2.6662 Units=m
New Line.LINE3563 Bus1=3549 Bus2=3564 phases=3 Linecode=2c_.04 Length=3.7717 Units=m
New Line.LINE3564 Bus1=3549 Bus2=3565 phases=3 Linecode=2c_.04 Length=3.7717 Units=m
New Line.LINE3575 Bus1=3561 Bus2=3576 phases=3 Linecode=2c_.04 Length=2.1006 Units=m
New Line.LINE3576 Bus1=3561 Bus2=3577 phases=3 Linecode=2c_.04 Length=1.9674 Units=m
New Line.LINE3577 Bus1=3562 Bus2=3578 phases=3 Linecode=2c_.04 Length=7.1845 Units=m
New Line.LINE3578 Bus1=3562 Bus2=3579 phases=3 Linecode=2c_.04 Length=7.1845 Units=m
New Line.LINE3658 Bus1=3652 Bus2=3659 phases=3 Linecode=2c_.04 Length=3.8093 Units=m
New Line.LINE3659 Bus1=3652 Bus2=3660 phases=3 Linecode=2c_.04 Length=3.8093 Units=m
New Line.LINE3665 Bus1=3658 Bus2=3666 phases=3 Linecode=2c_.04 Length=3.3176 Units=m
New Line.LINE3749 Bus1=3747 Bus2=3750 phases=3 Linecode=2c_.04 Length=7.0351 Units=m
New Line.LINE3750 Bus1=3747 Bus2=3751 phases=3 Linecode=2c_.04 Length=7.0351 Units=m
New Line.LINE3753 Bus1=3749 Bus2=3754 phases=3 Linecode=2c_.04 Length=3.9431 Units=m
New Line.LINE3754 Bus1=3749 Bus2=3755 phases=3 Linecode=2c_.04 Length=3.9431 Units=m
New Line.LINE3831 Bus1=3829 Bus2=3832 phases=3 Linecode=2c_.04 Length=3.3188 Units=m
New Line.LINECmpd_0 Bus1=117 Bus2=288 phases=3 Linecode=2c_.04 Length=6.215581 Units=m
New Line.LINECmpd_1 Bus1=2558 Bus2=3138 phases=3 Linecode=2c_.04 Length=13.032452 Units=m
New Line.LINECmpd_2 Bus1=1560 Bus2=2121 phases=3 Linecode=2c_.04 Length=17.431485 Units=m
New Line.LINECmpd_3 Bus1=3428 Bus2=3616 phases=3 Linecode=2c_.04 Length=13.91214 Units=m
New Line.LINECmpd_4 Bus1=105 Bus2=389 phases=3 Linecode=2c_.04 Length=52.10427 Units=m
New Line.LINECmpd_5 Bus1=1995 Bus2=2399 phases=3 Linecode=2c_.04 Length=17.85825 Units=m
New Line.LINECmpd_6 Bus1=1644 Bus2=2342 phases=3 Linecode=2c_.04 Length=19.53877 Units=m
New Line.LINECmpd_7 Bus1=59 Bus2=102 phases=3 Linecode=4c_.2 Length=7.452343 Units=m
New Line.LINECmpd_8 Bus1=3493 Bus2=3747 phases=3 Linecode=2c_.04 Length=22.174633 Units=m
New Line.LINECmpd_9 Bus1=549 Bus2=1586 phases=3 Linecode=2c_.04 Length=21.188617 Units=m
New Line.LINECmpd_10 Bus1=768 Bus2=1292 phases=3 Linecode=2c_.04 Length=21.96469 Units=m
New Line.LINECmpd_11 Bus1=3144 Bus2=3428 phases=3 Linecode=2c_.04 Length=9.36718 Units=m
New Line.LINECmpd_12 Bus1=2083 Bus2=2709 phases=3 Linecode=2c_.04 Length=16.452491 Units=m
New Line.LINECmpd_13 Bus1=953 Bus2=1416 phases=3 Linecode=2c_.04 Length=17.00565 Units=m
New Line.LINECmpd_14 Bus1=742 Bus2=835 phases=3 Linecode=4c_.12 Length=21.9983 Units=m
New Line.LINECmpd_15 Bus1=204 Bus2=728 phases=3 Linecode=2c_.04 Length=17.320753 Units=m
New Line.LINECmpd_16 Bus1=1023 Bus2=1251 phases=3 Linecode=2c_.04 Length=8.12873 Units=m
New Line.LINECmpd_17 Bus1=2000 Bus2=2372 phases=3 Linecode=2c_.04 Length=7.923318 Units=m
New Line.LINECmpd_18 Bus1=59 Bus2=285 phases=3 Linecode=4c_.3 Length=92.50361 Units=m
New Line.LINECmpd_19 Bus1=207 Bus2=903 phases=3 Linecode=2c_.04 Length=20.810107 Units=m
New Line.LINECmpd_20 Bus1=548 Bus2=1644 phases=3 Linecode=2c_.04 Length=21.435591 Units=m
New Line.LINECmpd_21 Bus1=1195 Bus2=2125 phases=3 Linecode=4c_.12 Length=13.543386 Units=m
New Line.LINECmpd_22 Bus1=3747 Bus2=3829 phases=3 Linecode=2c_.04 Length=15.374633 Units=m
New Line.LINECmpd_23 Bus1=382 Bus2=1036 phases=3 Linecode=2c_.04 Length=8.334419 Units=m
New Line.LINECmpd_24 Bus1=1025 Bus2=1144 phases=3 Linecode=2c_.04 Length=4.768033 Units=m
New Line.LINECmpd_25 Bus1=3397 Bus2=3621 phases=3 Linecode=2c_.04 Length=20.44576 Units=m
New Line.LINECmpd_26 Bus1=1858 Bus2=2097 phases=3 Linecode=2c_.04 Length=7.92592 Units=m
New Line.LINECmpd_27 Bus1=276 Bus2=548 phases=3 Linecode=2c_.04 Length=6.293185 Units=m
New Line.LINECmpd_28 Bus1=2467 Bus2=3224 phases=3 Linecode=2c_.04 Length=21.215645 Units=m
New Line.LINECmpd_29 Bus1=1801 Bus2=2016 phases=3 Linecode=2c_.04 Length=5.73198 Units=m
New Line.LINECmpd_30 Bus1=415 Bus2=1391 phases=3 Linecode=2c_.04 Length=31.021268 Units=m
New Line.LINECmpd_31 Bus1=2274 Bus2=2607 phases=3 Linecode=2c_.04 Length=16.57561 Units=m
New Line.LINECmpd_32 Bus1=2156 Bus2=2665 phases=3 Linecode=2c_.04 Length=20.42982 Units=m
New Line.LINECmpd_33 Bus1=3829 Bus2=3855 phases=3 Linecode=2c_.04 Length=12.01567 Units=m
New Line.LINECmpd_34 Bus1=2561 Bus2=2934 phases=3 Linecode=2c_.04 Length=9.77437 Units=m
New Line.LINECmpd_35 Bus1=1050 Bus2=1300 phases=3 Linecode=2c_.04 Length=7.84256 Units=m
New Line.LINECmpd_36 Bus1=1586 Bus2=1979 phases=3 Linecode=2c_.04 Length=14.69199 Units=m
New Line.LINECmpd_37 Bus1=1313 Bus2=1494 phases=3 Linecode=2c_.04 Length=6.314586 Units=m
New Line.LINECmpd_38 Bus1=134 Bus2=318 phases=3 Linecode=2c_.04 Length=10.15317 Units=m
New Line.LINECmpd_39 Bus1=2164 Bus2=2429 phases=3 Linecode=2c_.04 Length=10.834607 Units=m
New Line.LINECmpd_40 Bus1=3519 Bus2=3658 phases=3 Linecode=2c_.04 Length=6.07425 Units=m
New Line.LINECmpd_41 Bus1=535 Bus2=745 phases=3 Linecode=2c_.04 Length=10.94168 Units=m
New Line.LINECmpd_42 Bus1=943 Bus2=1631 phases=3 Linecode=2c_.04 Length=17.395622 Units=m
New Line.LINECmpd_43 Bus1=2264 Bus2=2561 phases=3 Linecode=2c_.04 Length=6.35526 Units=m
New Line.LINECmpd_44 Bus1=2824 Bus2=3140 phases=3 Linecode=2c_.04 Length=6.94496 Units=m
New Line.LINECmpd_45 Bus1=929 Bus2=1313 phases=3 Linecode=2c_.04 Length=22.930974 Units=m
New Line.LINECmpd_46 Bus1=3658 Bus2=3731 phases=3 Linecode=2c_.04 Length=15.84944 Units=m
New Line.LINECmpd_47 Bus1=772 Bus2=1180 phases=3 Linecode=25_PSC Length=5.198073 Units=m
New Line.LINECmpd_48 Bus1=3236 Bus2=3324 phases=3 Linecode=4c_.12 Length=23.866 Units=m
New Line.LINECmpd_49 Bus1=1300 Bus2=1528 phases=3 Linecode=2c_.04 Length=14.08071 Units=m
New Line.LINECmpd_50 Bus1=1576 Bus2=2083 phases=3 Linecode=2c_.04 Length=7.439551 Units=m
New Line.LINECmpd_51 Bus1=1833 Bus2=1939 phases=3 Linecode=4c_.06_AS Length=24.7913 Units=m
New Line.LINECmpd_52 Bus1=2261 Bus2=2524 phases=3 Linecode=2c_.04 Length=7.52336 Units=m
New Line.LINECmpd_53 Bus1=3749 Bus2=3836 phases=3 Linecode=2c_.04 Length=17.854535 Units=m
New Line.LINECmpd_54 Bus1=2691 Bus2=3236 phases=3 Linecode=4c_.12 Length=52.84543 Units=m
New Line.LINECmpd_55 Bus1=3324 Bus2=3388 phases=3 Linecode=2c_.04 Length=13.22743 Units=m
New Line.LINECmpd_56 Bus1=1572 Bus2=1866 phases=3 Linecode=4c_.04 Length=13.96901 Units=m
New Line.LINECmpd_57 Bus1=3192 Bus2=3464 phases=3 Linecode=2c_.04 Length=6.331335 Units=m
New Line.LINECmpd_58 Bus1=29 Bus2=59 phases=3 Linecode=4c_.25 Length=36.510085 Units=m
New Line.LINECmpd_59 Bus1=1600 Bus2=1775 phases=3 Linecode=2c_.04 Length=9.71019 Units=m
New Line.LINECmpd_60 Bus1=285 Bus2=1179 phases=3 Linecode=3c_300_ASN Length=134.77696 Units=m
New Line.LINECmpd_61 Bus1=2591 Bus2=2657 phases=3 Linecode=4c_.12 Length=14.4645 Units=m
New Line.LINECmpd_62 Bus1=3066 Bus2=3549 phases=3 Linecode=2c_.04 Length=21.08864 Units=m
New Line.LINECmpd_63 Bus1=772 Bus2=1016 phases=3 Linecode=25_PSC Length=2.45722 Units=m
New Line.LINECmpd_64 Bus1=2054 Bus2=2546 phases=3 Linecode=2c_.04 Length=18.74469 Units=m
New Line.LINECmpd_65 Bus1=1036 Bus2=2094 phases=3 Linecode=2c_.04 Length=22.357234 Units=m
New Line.LINECmpd_66 Bus1=1025 Bus2=1125 phases=3 Linecode=2c_.04 Length=3.05239 Units=m
New Line.LINECmpd_67 Bus1=2470 Bus2=2591 phases=3 Linecode=4c_.12 Length=11.779299 Units=m
New Line.LINECmpd_68 Bus1=2570 Bus2=2807 phases=3 Linecode=4c_.12 Length=35.63345 Units=m
New Line.LINECmpd_69 Bus1=111 Bus2=194 phases=3 Linecode=4c_.12 Length=30.61811 Units=m
New Line.LINECmpd_70 Bus1=684 Bus2=1121 phases=3 Linecode=2c_.04 Length=17.235 Units=m
New Line.LINECmpd_71 Bus1=488 Bus2=568 phases=3 Linecode=4c_.12 Length=18.3398 Units=m
New Line.LINECmpd_72 Bus1=1993 Bus2=2164 phases=3 Linecode=4c_.06 Length=16.24416 Units=m
New Line.LINECmpd_73 Bus1=3464 Bus2=3749 phases=3 Linecode=2c_.04 Length=21.332225 Units=m
New Line.LINECmpd_74 Bus1=2075 Bus2=2454 phases=3 Linecode=2c_.04 Length=8.0836 Units=m
New Line.LINECmpd_75 Bus1=2379 Bus2=3144 phases=3 Linecode=2c_.04 Length=45.74358 Units=m
New Line.LINECmpd_76 Bus1=3292 Bus2=3516 phases=3 Linecode=2c_.04 Length=7.92672 Units=m
New Line.LINECmpd_77 Bus1=1 Bus2=29 phases=3 Linecode=3c_300_SAC_XC Length=13.593207 Units=m
New Line.LINECmpd_78 Bus1=2164 Bus2=2643 phases=3 Linecode=2c_.04 Length=12.72876 Units=m
New Line.LINECmpd_79 Bus1=389 Bus2=953 phases=3 Linecode=2c_.04 Length=9.811572 Units=m
New Line.LINECmpd_80 Bus1=488 Bus2=724 phases=3 Linecode=2c_.04 Length=11.63368 Units=m
New Line.LINECmpd_81 Bus1=1305 Bus2=1485 phases=3 Linecode=2c_.04 Length=7.79026 Units=m
New Line.LINECmpd_82 Bus1=276 Bus2=549 phases=3 Linecode=2c_.04 Length=3.048136 Units=m
New Line.LINECmpd_83 Bus1=2639 Bus2=2845 phases=3 Linecode=2c_.04 Length=2.67526 Units=m
New Line.LINECmpd_84 Bus1=1313 Bus2=1564 phases=3 Linecode=2c_.04 Length=8.466208 Units=m
New Line.LINECmpd_85 Bus1=1144 Bus2=1355 phases=3 Linecode=2c_.04 Length=8.45394 Units=m
New Line.LINECmpd_86 Bus1=2919 Bus2=3313 phases=3 Linecode=2c_.04 Length=8.115651 Units=m
New Line.LINECmpd_87 Bus1=3223 Bus2=3561 phases=3 Linecode=2c_.04 Length=17.157049 Units=m
New Line.LINECmpd_88 Bus1=1995 Bus2=2250 phases=3 Linecode=25_PSC Length=7.33647 Units=m
New Line.LINECmpd_89 Bus1=233 Bus2=929 phases=3 Linecode=4c_.12 Length=41.70269 Units=m
New Line.LINECmpd_90 Bus1=2261 Bus2=2467 phases=3 Linecode=2c_.04 Length=3.15039 Units=m
New Line.LINECmpd_91 Bus1=1945 Bus2=2226 phases=3 Linecode=2c_.04 Length=5.56364 Units=m
New Line.LINECmpd_92 Bus1=1801 Bus2=2072 phases=3 Linecode=2c_.04 Length=9.429134 Units=m
New Line.LINECmpd_93 Bus1=2844 Bus2=3176 phases=3 Linecode=2c_.04 Length=23.79003 Units=m
New Line.LINECmpd_94 Bus1=1494 Bus2=1929 phases=3 Linecode=2c_.04 Length=8.84973 Units=m
New Line.LINECmpd_95 Bus1=2189 Bus2=2274 phases=3 Linecode=4c_.12 Length=4.2531 Units=m
New Line.LINECmpd_96 Bus1=408 Bus2=488 phases=3 Linecode=4c_.12 Length=8.1126 Units=m
New Line.LINECmpd_97 Bus1=2454 Bus2=2837 phases=3 Linecode=2c_.04 Length=17.76221 Units=m
New Line.LINECmpd_98 Bus1=721 Bus2=1027 phases=3 Linecode=2c_.04 Length=12.64497 Units=m
New Line.LINECmpd_99 Bus1=3184 Bus2=3338 phases=3 Linecode=2c_.04 Length=9.35886 Units=m
New Line.LINECmpd_100 Bus1=2036 Bus2=2404 phases=3 Linecode=2c_.04 Length=7.684466 Units=m
New Line.LINECmpd_101 Bus1=2723 Bus2=3066 phases=3 Linecode=2c_.04 Length=8.45459 Units=m
New Line.LINECmpd_102 Bus1=3313 Bus2=3562 phases=3 Linecode=2c_.04 Length=11.588104 Units=m
New Line.LINECmpd_103 Bus1=267 Bus2=301 phases=3 Linecode=4c_.12 Length=7.0833 Units=m
New Line.LINECmpd_104 Bus1=288 Bus2=871 phases=3 Linecode=2c_.04 Length=18.462757 Units=m
New Line.LINECmpd_105 Bus1=691 Bus2=893 phases=3 Linecode=4c_.12 Length=35.7483 Units=m
New Line.LINECmpd_106 Bus1=3184 Bus2=3317 phases=3 Linecode=2c_.04 Length=8.49483 Units=m
New Line.LINECmpd_107 Bus1=2524 Bus2=3203 phases=3 Linecode=2c_.04 Length=21.05247 Units=m
New Line.LINECmpd_108 Bus1=2639 Bus2=2844 phases=3 Linecode=2c_.04 Length=2.645429 Units=m
New Line.LINECmpd_109 Bus1=3520 Bus2=3652 phases=3 Linecode=2c_.04 Length=18.26417 Units=m
New Line.LINECmpd_110 Bus1=2920 Bus2=3292 phases=3 Linecode=2c_.04 Length=13.53506 Units=m
New Line.LINECmpd_111 Bus1=2998 Bus2=3397 phases=3 Linecode=2c_.04 Length=12.32129 Units=m
New Line.LINECmpd_112 Bus1=2072 Bus2=2699 phases=3 Linecode=2c_.04 Length=18.13215 Units=m
New Line.LINECmpd_113 Bus1=2233 Bus2=2347 phases=3 Linecode=4c_.12 Length=29.6347 Units=m
New Line.LINECmpd_114 Bus1=3516 Bus2=3698 phases=3 Linecode=2c_.04 Length=15.999713 Units=m
New Line.LINECmpd_115 Bus1=1564 Bus2=2036 phases=3 Linecode=2c_.04 Length=8.941218 Units=m
New Line.LINECmpd_116 Bus1=1355 Bus2=1808 phases=3 Linecode=2c_.04 Length=17.6682 Units=m
New Line.LINECmpd_117 Bus1=2076 Bus2=2361 phases=3 Linecode=2c_.04 Length=8.269811 Units=m
New Line.LINECmpd_118 Bus1=2097 Bus2=2566 phases=3 Linecode=2c_.04 Length=18.667724 Units=m
New Line.LINECmpd_119 Bus1=862 Bus2=1405 phases=3 Linecode=2c_.04 Length=13.826438 Units=m
New Line.LINECmpd_120 Bus1=1302 Bus2=1718 phases=3 Linecode=2c_.04 Length=16.57729 Units=m
New Line.LINECmpd_121 Bus1=893 Bus2=1002 phases=3 Linecode=4c_.12 Length=46.2886 Units=m
New Line.LINECmpd_122 Bus1=2125 Bus2=3098 phases=3 Linecode=4c_.12 Length=20.00844 Units=m
New Line.LINECmpd_123 Bus1=3520 Bus2=3674 phases=3 Linecode=2c_.04 Length=22.643841 Units=m
New Line.LINECmpd_124 Bus1=1965 Bus2=2076 phases=3 Linecode=2c_.04 Length=1.65198 Units=m
New Line.LINECmpd_125 Bus1=218 Bus2=291 phases=3 Linecode=2c_.04 Length=15.3579 Units=m
New Line.LINECmpd_126 Bus1=1843 Bus2=2000 phases=3 Linecode=2c_.04 Length=2.619412 Units=m
New Line.LINECmpd_127 Bus1=1993 Bus2=2189 phases=3 Linecode=4c_.06_AS Length=20.8107 Units=m
New Line.LINECmpd_128 Bus1=483 Bus2=838 phases=3 Linecode=2c_.04 Length=14.69922 Units=m
New Line.LINECmpd_129 Bus1=291 Bus2=415 phases=3 Linecode=2c_.04 Length=8.24232 Units=m
New Line.LINECmpd_130 Bus1=102 Bus2=127 phases=3 Linecode=4c_.12 Length=4.91555 Units=m
New Line.LINECmpd_131 Bus1=2699 Bus2=3220 phases=3 Linecode=2c_.04 Length=20.142119 Units=m
New Line.LINECmpd_132 Bus1=285 Bus2=408 phases=3 Linecode=4c_.3 Length=2.53603 Units=m
New Line.LINECmpd_133 Bus1=1411 Bus2=1576 phases=3 Linecode=2c_.04 Length=3.394177 Units=m
New Line.LINECmpd_134 Bus1=3140 Bus2=3341 phases=3 Linecode=2c_.04 Length=11.73368 Units=m
New Line.LINECmpd_135 Bus1=405 Bus2=768 phases=3 Linecode=2c_.04 Length=7.014327 Units=m
New Line.LINECmpd_136 Bus1=2500 Bus2=2889 phases=3 Linecode=4c_.12 Length=31.98334 Units=m
New Line.LINECmpd_137 Bus1=914 Bus2=1069 phases=3 Linecode=2c_.04 Length=4.17675 Units=m
New Line.LINECmpd_138 Bus1=1846 Bus2=2172 phases=3 Linecode=2c_.04 Length=13.22632 Units=m
New Line.LINECmpd_139 Bus1=2594 Bus2=2865 phases=3 Linecode=2c_.04 Length=8.248096 Units=m
New Line.LINECmpd_140 Bus1=127 Bus2=196 phases=3 Linecode=4c_.12 Length=9.155362 Units=m
New Line.LINECmpd_141 Bus1=1843 Bus2=1999 phases=3 Linecode=2c_.04 Length=2.52539 Units=m
New Line.LINECmpd_142 Bus1=1002 Bus2=1256 phases=3 Linecode=4c_.12 Length=42.61714 Units=m
New Line.LINECmpd_143 Bus1=3388 Bus2=3520 phases=3 Linecode=2c_.04 Length=4.909649 Units=m
New Line.LINECmpd_144 Bus1=2404 Bus2=2915 phases=3 Linecode=2c_.04 Length=10.370154 Units=m
New Line.LINECmpd_145 Bus1=1251 Bus2=1550 phases=3 Linecode=2c_.04 Length=15.028077 Units=m
New Line.LINECmpd_146 Bus1=1828 Bus2=2156 phases=3 Linecode=2c_.04 Length=8.59438 Units=m
New Line.LINECmpd_147 Bus1=1486 Bus2=1841 phases=3 Linecode=2c_.04 Length=14.5769 Units=m
New Line.LINECmpd_148 Bus1=2429 Bus2=2574 phases=3 Linecode=2c_.04 Length=7.433502 Units=m
New Line.LINECmpd_149 Bus1=1125 Bus2=1302 phases=3 Linecode=2c_.04 Length=8.15502 Units=m
New Line.LINECmpd_150 Bus1=1179 Bus2=1524 phases=3 Linecode=3c_300_SAC_ASN Length=5.5743 Units=m
New Line.LINECmpd_151 Bus1=2274 Bus2=2570 phases=3 Linecode=4c_.12 Length=25.7363 Units=m
New Line.LINECmpd_152 Bus1=1532 Bus2=1839 phases=3 Linecode=2c_.04 Length=13.48614 Units=m
New Line.LINECmpd_153 Bus1=1642 Bus2=1817 phases=3 Linecode=2c_.04 Length=6.31247 Units=m
New Line.LINECmpd_154 Bus1=602 Bus2=843 phases=3 Linecode=2c_.04 Length=6.22299 Units=m
New Line.LINECmpd_155 Bus1=1866 Bus2=2054 phases=3 Linecode=2c_.04 Length=5.5672 Units=m
New Line.LINECmpd_156 Bus1=1999 Bus2=2340 phases=3 Linecode=2c_.04 Length=7.50492 Units=m
New Line.LINECmpd_157 Bus1=2607 Bus2=2846 phases=3 Linecode=2c_.04 Length=12.90022 Units=m
New Line.LINECmpd_158 Bus1=2594 Bus2=2903 phases=3 Linecode=2c_.04 Length=7.69963 Units=m
New Line.LINECmpd_159 Bus1=1711 Bus2=1828 phases=3 Linecode=2c_.04 Length=2.12038 Units=m
New Line.LINECmpd_160 Bus1=1281 Bus2=1536 phases=3 Linecode=4c_.12 Length=20.19136 Units=m
New Line.LINECmpd_161 Bus1=1929 Bus2=2231 phases=3 Linecode=2c_.04 Length=12.50805 Units=m
New Line.LINECmpd_162 Bus1=568 Bus2=691 phases=3 Linecode=4c_.12 Length=20.5653 Units=m
New Line.LINECmpd_163 Bus1=2591 Bus2=2894 phases=3 Linecode=2c_.04 Length=12.94817 Units=m
New Line.LINECmpd_164 Bus1=1642 Bus2=1846 phases=3 Linecode=2c_.04 Length=6.614247 Units=m
New Line.LINECmpd_165 Bus1=1536 Bus2=1613 phases=3 Linecode=4c_.12 Length=24.4585 Units=m
New Line.LINECmpd_166 Bus1=3279 Bus2=3519 phases=3 Linecode=2c_.04 Length=13.89783 Units=m
New Line.LINECmpd_167 Bus1=2807 Bus2=2998 phases=3 Linecode=4c_.12 Length=8.63333 Units=m
New Line.LINECmpd_168 Bus1=457 Bus2=535 phases=3 Linecode=4c_.12 Length=15.04515 Units=m
New Line.LINECmpd_169 Bus1=1485 Bus2=1945 phases=3 Linecode=2c_.04 Length=11.596327 Units=m
New Line.LINECmpd_170 Bus1=1613 Bus2=1726 phases=3 Linecode=4c_.12 Length=34.2893 Units=m
New Line.LINECmpd_171 Bus1=2657 Bus2=2824 phases=3 Linecode=2c_.04 Length=16.05368 Units=m
New Line.LINECmpd_172 Bus1=291 Bus2=547 phases=3 Linecode=2c_.04 Length=8.089466 Units=m
New Line.LINECmpd_173 Bus1=1817 Bus2=2119 phases=3 Linecode=2c_.04 Length=14.2182 Units=m
New Line.LINECmpd_174 Bus1=1305 Bus2=1486 phases=3 Linecode=2c_.04 Length=4.97113 Units=m
New Line.LINECmpd_175 Bus1=3192 Bus2=3493 phases=3 Linecode=2c_.04 Length=3.149795 Units=m
New Line.LINECmpd_176 Bus1=929 Bus2=1195 phases=3 Linecode=4c_.12 Length=15.00962 Units=m
New Line.LINECmpd_177 Bus1=1965 Bus2=2075 phases=3 Linecode=2c_.04 Length=1.48862 Units=m
New Line.LINECmpd_178 Bus1=1256 Bus2=1411 phases=3 Linecode=2c_.04 Length=30.21722 Units=m
New Line.LINECmpd_179 Bus1=1411 Bus2=1532 phases=3 Linecode=2c_.04 Length=5.85919 Units=m
New Line.LINECmpd_180 Bus1=2845 Bus2=3223 phases=3 Linecode=2c_.04 Length=7.765708 Units=m
New Line.LINECmpd_181 Bus1=919 Bus2=1023 phases=3 Linecode=2c_.04 Length=6.017464 Units=m
New Line.LINECmpd_182 Bus1=2361 Bus2=2997 phases=3 Linecode=2c_.04 Length=18.213 Units=m
New Line.LINECmpd_183 Bus1=602 Bus2=842 phases=3 Linecode=2c_.04 Length=11.43388 Units=m
New Line.LINECmpd_184 Bus1=1524 Bus2=1682 phases=3 Linecode=4c_.06_AS Length=22.737392 Units=m
New Line.LINECmpd_185 Bus1=267 Bus2=382 phases=3 Linecode=2c_.04 Length=15.97617 Units=m
New Line.LINECmpd_186 Bus1=535 Bus2=654 phases=3 Linecode=4c_.12 Length=22.709 Units=m
New Line.LINECmpd_187 Bus1=2347 Bus2=2470 phases=3 Linecode=4c_.12 Length=17.934187 Units=m
New Line.LINECmpd_188 Bus1=323 Bus2=620 phases=3 Linecode=2c_.04 Length=19.53321 Units=m
New Line.LINECmpd_189 Bus1=301 Bus2=405 phases=3 Linecode=4c_.12 Length=18.5363 Units=m
New Line.LINECmpd_190 Bus1=2894 Bus2=3011 phases=3 Linecode=2c_.04 Length=5.6886 Units=m
New Line.LINECmpd_191 Bus1=2570 Bus2=2639 phases=3 Linecode=2c_.04 Length=15.9546 Units=m
New Line.LINECmpd_192 Bus1=2807 Bus2=3079 phases=3 Linecode=2c_.04 Length=9.87364 Units=m
New Line.LINECmpd_193 Bus1=3098 Bus2=3192 phases=3 Linecode=2c_.04 Length=29.1949 Units=m
New Line.LINECmpd_194 Bus1=1726 Bus2=1843 phases=3 Linecode=2c_.04 Length=14.25484 Units=m
New Line.LINECmpd_195 Bus1=196 Bus2=267 phases=3 Linecode=4c_.12 Length=20.45211 Units=m
New Line.LINECmpd_196 Bus1=3079 Bus2=3130 phases=3 Linecode=2c_.04 Length=7.2838 Units=m
New Line.LINECmpd_197 Bus1=1866 Bus2=1995 phases=3 Linecode=2c_.04 Length=7.75545 Units=m
New Line.LINECmpd_198 Bus1=1711 Bus2=1858 phases=3 Linecode=2c_.04 Length=2.18423 Units=m
New Line.LINECmpd_199 Bus1=1939 Bus2=1993 phases=3 Linecode=4c_.06_AS Length=5.3335 Units=m
New Line.LINECmpd_200 Bus1=1682 Bus2=1772 phases=3 Linecode=4c_.06_AS Length=25.9035 Units=m
New Line.LINECmpd_201 Bus1=919 Bus2=1050 phases=3 Linecode=2c_.04 Length=3.24315 Units=m
New Line.LINECmpd_202 Bus1=654 Bus2=742 phases=3 Linecode=4c_.12 Length=15.5403 Units=m
New Line.LINECmpd_203 Bus1=2176 Bus2=2233 phases=3 Linecode=4c_.12 Length=3.09412 Units=m
New Line.LINECmpd_204 Bus1=233 Bus2=276 phases=3 Linecode=2c_.04 Length=13.9732 Units=m
New Line.LINECmpd_205 Bus1=721 Bus2=1080 phases=3 Linecode=2c_.04 Length=3.30579 Units=m
New Line.LINECmpd_206 Bus1=2399 Bus2=2462 phases=3 Linecode=2c_.04 Length=7.9601 Units=m
New Line.LINECmpd_207 Bus1=889 Bus2=943 phases=3 Linecode=4c_.12 Length=9.7743 Units=m
New Line.LINECmpd_208 Bus1=1524 Bus2=1572 phases=3 Linecode=4c_.06 Length=10.1699 Units=m
New Line.LINECmpd_209 Bus1=2205 Bus2=2264 phases=3 Linecode=2c_.04 Length=16.0547 Units=m
New Line.LINECmpd_210 Bus1=2125 Bus2=2176 phases=3 Linecode=4c_.12 Length=21.8304 Units=m
New Line.LINECmpd_211 Bus1=914 Bus2=968 phases=3 Linecode=2c_.04 Length=7.8528 Units=m
New Line.LINECmpd_212 Bus1=3236 Bus2=3279 phases=3 Linecode=4c_.12 Length=10.8469 Units=m
New Line.LINECmpd_213 Bus1=1772 Bus2=1833 phases=3 Linecode=4c_.06_AS Length=6.0868 Units=m
New Line.LINECmpd_214 Bus1=408 Bus2=457 phases=3 Linecode=4c_.12 Length=14.9337 Units=m
New Line.LINECmpd_215 Bus1=2016 Bus2=2073 phases=3 Linecode=2c_.04 Length=6.7699 Units=m
New Line.LINECmpd_216 Bus1=3140 Bus2=3184 phases=3 Linecode=2c_.04 Length=9.0344 Units=m
New Line.LINECmpd_217 Bus1=835 Bus2=889 phases=3 Linecode=4c_.12 Length=14.8756 Units=m
New Line.LINECmpd_218 Bus1=1775 Bus2=1836 phases=3 Linecode=2c_.04 Length=5.3531 Units=m
New Line.LINECmpd_219 Bus1=194 Bus2=218 phases=3 Linecode=4c_.12 Length=6.34275 Units=m
New Line.LINECmpd_220 Bus1=2643 Bus2=2708 phases=3 Linecode=2c_.04 Length=6.2989 Units=m
